[General]
network = test
sim-time-limit = 50s
